/*--------------------------------*- C++ -*----------------------------------*\
| =========                 |                                                 |
| \\      /  F ield         | OpenFOAM: The Open Source CFD Toolbox           |
|  \\    /   O peration     | Version:  4.1                                   |
|   \\  /    A nd           | Web:      www.OpenFOAM.org                      |
|    \\/     M anipulation  |                                                 |
\*---------------------------------------------------------------------------*/
FoamFile
{
    version     2.0;
    format      ascii;
    class       volScalarField;
    location    "0";
    object      epsilon;
}
// * * * * * * * * * * * * * * * * * * * * * * * * * * * * * * * * * * * * * //

dimensions      [0 2 -3 0 0 0 0];

internalField   uniform 0.003;

boundaryField
{
    inlet
    {
        type            fixedValue;
        value           uniform 0.003;
    }
    outlet
    {
        type            zeroGradient;
    }
    walls
    {
        type            slip;//epsilonWallFunction;
        //value           uniform 0.003;
    }

	"proc.*"
	{
		type            processor;
	}
}


// ************************************************************************* //
