/*--------------------------------*- C++ -*----------------------------------*\
| =========                 |                                                 |
| \\      /  F ield         | OpenFOAM: The Open Source CFD Toolbox           |
|  \\    /   O peration     | Version:  4.1                                   |
|   \\  /    A nd           | Web:      www.OpenFOAM.org                      |
|    \\/     M anipulation  |                                                 |
\*---------------------------------------------------------------------------*/
FoamFile
{
    version     2.0;
    format      ascii;
    class       dictionary;
    object      topoSetDict;
}

// * * * * * * * * * * * * * * * * * * * * * * * * * * * * * * * * * * * * * //

actions
(
    // actuationDisk
    {
        name    actuationDiskCellSet;
        type    cellSet;
        action  new;
        source  boxToCell;
        sourceInfo
        {
            box (102 -20.5 -20.5) (103 20.5 20.5);
        }
    }
    {
        name    actuationDisk;
        type    cellZoneSet;
        action  new;
        source  setToCellZone;
        sourceInfo
        {
            set actuationDiskCellSet;
        }
    }



);

// ************************************************************************* //
